Circuit: * C:\Users\Happy\Desktop\Circuit SImulations\Draft2.asc

.OP point found by inspection.

Date: Wed Aug 16 22:27:55 2017
Total elapsed time: 0.109 seconds.

tnom = 27
temp = 27
method = modified trap
totiter = 14040
traniter = 14040
tranpoints = 7021
accept = 5771
rejected = 1250
matrix size = 3
fillins = 0
solver = Normal
Matrix Compiler1: 50 bytes object code size  0.0/0.0/[0.0]
Matrix Compiler2: 175 bytes object code size  0.1/0.0/[0.0]

