Circuit: * C:\Users\Happy\Desktop\Circuit SImulations\Draft3.asc

.OP point found by inspection.

Date: Sat Aug 26 02:52:31 2017
Total elapsed time: 0.186 seconds.

tnom = 27
temp = 27
method = modified trap
totiter = 83405
traniter = 83405
tranpoints = 14226
accept = 10792
rejected = 3434
matrix size = 4
fillins = 0
solver = Normal
Matrix Compiler1: 118 bytes object code size  0.0/0.0/[0.0]
Matrix Compiler2: 242 bytes object code size  0.0/0.1/[0.0]

