Circuit: * C:\Users\Happy\Desktop\Circuit SImulations\Draft1.asc

Direct Newton iteration for .op point succeeded.

Date: Sat Aug 26 02:33:32 2017
Total elapsed time: 0.046 seconds.

tnom = 27
temp = 27
method = modified trap
totiter = 2200
traniter = 2196
tranpoints = 1042
accept = 1042
rejected = 0
matrix size = 9
fillins = 0
solver = Normal
Matrix Compiler1: 260 bytes object code size  0.1/0.0/[0.0]
Matrix Compiler2: 579 bytes object code size  0.0/0.1/[0.0]

