Circuit: * C:\Users\Happy\Desktop\Circuit SImulations\EE 253\Draft1.asc


Date: Sat Aug 26 03:06:54 2017
Total elapsed time: 0.025 seconds.

tnom = 27
temp = 27
method = trap
totiter = 0
traniter = 0
tranpoints = 0
accept = 0
rejected = 0
matrix size = 3
fillins = 0
solver = Normal

