Circuit: * C:\Users\Happy\Desktop\Circuit SImulations\EE 253\Draft4.asc

Direct Newton iteration for .op point succeeded.

Date: Mon Jan 29 01:10:46 2018
Total elapsed time: 0.121 seconds.

tnom = 27
temp = 27
method = modified trap
totiter = 3932
traniter = 3910
tranpoints = 1731
accept = 1608
rejected = 123
matrix size = 64
fillins = 61
solver = Normal
Matrix Compiler1: 5.07 KB object code size  1.1/0.5/[0.3]
Matrix Compiler2: 6.59 KB object code size  0.6/0.8/[0.4]

