Circuit: * C:\Users\Happy\Desktop\Circuit SImulations\EE 253\exp2_a.asc

Direct Newton iteration for .op point succeeded.

Date: Mon Nov 13 23:47:56 2017
Total elapsed time: 0.047 seconds.

tnom = 27
temp = 27
method = modified trap
totiter = 2112
traniter = 2102
tranpoints = 1042
accept = 1042
rejected = 0
matrix size = 6
fillins = 0
solver = Normal
Matrix Compiler1: off  [0.0]/0.0/0.0
Matrix Compiler2: off  [0.0]/0.1/0.0

