Circuit: * C:\Users\Happy\Desktop\Circuit SImulations\EE 253\exp2_b.asc

Direct Newton iteration for .op point succeeded.

Date: Wed Jan 10 23:23:09 2018
Total elapsed time: 0.053 seconds.

tnom = 27
temp = 27
method = modified trap
totiter = 2200
traniter = 2196
tranpoints = 1042
accept = 1042
rejected = 0
matrix size = 9
fillins = 0
solver = Normal
Matrix Compiler1:      16 opcodes  0.1/[0.1]/0.1
Matrix Compiler2: 579 bytes object code size  0.1/0.1/[0.0]

