Circuit: * C:\Users\Happy\Desktop\Circuit SImulations\EE 253\expt3_2.asc

.OP point found by inspection.

Date: Tue Nov 14 11:40:20 2017
Total elapsed time: 6.470 seconds.

tnom = 27
temp = 27
method = modified trap
totiter = 6048494
traniter = 6048494
tranpoints = 1927989
accept = 1316220
rejected = 611769
matrix size = 6
fillins = 0
solver = Normal
Matrix Compiler1: 236 bytes object code size  0.1/0.0/[0.0]
Matrix Compiler2: 382 bytes object code size  0.1/0.1/[0.0]

